################################################
#   .cif file created from POSCAR
################################################

# {{ title }}

data_Exo8scRp

_symmetry_Int_Tables_number        1

_cell_length_a                     {{ lpara }}
_cell_length_b                     {{ lparb }}
_cell_length_c                     {{ lparc }}
_cell_angle_alpha                  {{ alpha }}
_cell_angle_beta                   {{ beta }}
_cell_angle_gamma                  {{ gamma }}

loop_
_symmetry_equiv_pos_site_id
_symmetry_equiv_pos_as_xyz
   1   x,y,z

loop_
_atom_site_label
_atom_site_type_symbol
_atom_site_fract_x
_atom_site_fract_y
_atom_site_fract_z
_atom_site_occupancy

{{ bVs }}